# Name file for MODFLOW-2005, generated by Flopy version 3.9.5.
#xll:0.0; yll:0.0; rotation:0.0; units:meters; lenuni:2; start_datetime:1-1-1970
LIST               2  model_with_low_k_zone.list
DIS               11  model_with_low_k_zone.dis
BAS6              13  model_with_low_k_zone.bas
LPF               15  model_with_low_k_zone.lpf
PCG               27  model_with_low_k_zone.pcg
OC                14  model_with_low_k_zone.oc
DATA(BINARY)      51  model_with_low_k_zone.hds REPLACE
